powerflow/Codes/PF_Formulation/resultados_csv/19/caso_red2/resultados_barras_SIN.csv
ID_Barra,Tipo_Barra,Tensao_Base_kV,Tensao_Mag_pu,Tensao_Ang_graus,P_Geracao_pu,Q_Geracao_pu,P_Carga_pu,Q_Carga_pu,Desvio_Tensao_QLIM_pu,Corte_Reativo_VLIM_pu,Corte_Ativo_DERA_pu,Corte_Reativo_DERA_pu
5002,1,34.5,1.0031252575103047,10.935695916864686,0.0,0.0,0.0,0.0,0.0,9.548367830038037e-10,0.0,0.0
5008,1,34.5,1.0043586751289613,11.002822716848577,0.0,0.0,0.0,0.0,0.0,9.753499978082186e-10,0.0,0.0
5019,1,138.0,1.0033166374310907,9.114421820206069,0.0,0.0,0.0,0.0,0.0,9.013720947118697e-10,0.0,0.0
5020,1,34.5,0.9976578555055257,2.180881830507785,0.0,0.0,0.0,0.0,0.0,-7.454203971022069e-10,0.0,0.0
5034,1,34.5,1.0057521008220398,13.570793485950393,0.0,0.0,0.0,0.0,0.0,-1.729868895102681e-9,0.0,0.0
5035,1,230.0,1.0282048838660982,9.427880770199055,0.0,0.0,0.0,0.0,0.0,-1.7151209350861342e-9,0.0,0.0
5036,1,34.5,0.9833472099963023,11.043449417569773,0.0,0.0,0.0,0.0,0.0,3.037182951155339e-8,0.0,0.0
5041,1,230.0,1.0488874592181874,8.961804586610612,0.0,0.0,0.0,0.0,0.0,2.994134179686441e-8,0.0,0.0
5042,1,34.5,1.0439780506609395,10.63619825206302,0.0,0.0,0.0,0.0,0.0,3.24956033610073e-8,0.0,0.0
5043,1,34.5,0.9842127148452241,10.961650817860189,0.0,0.0,0.0,0.0,0.0,3.0252708011658375e-8,0.0,0.0
5044,1,34.5,1.0429856022544792,11.731455216410517,0.0,0.0,-0.29600000000000004,0.0538,0.0,3.31485450840167e-8,0.0,0.0
5068,1,13.8,1.0346699395782955,7.681835945030145,0.0,0.0,0.0,0.0,0.0,-1.1197895252897501e-7,0.0,0.0
5069,1,991.0,1.034669908517222,7.681835945030145,0.0,0.0,0.0,0.0,0.0,-1.1197363908245741e-7,0.0,0.0
5071,1,230.0,1.0140622126651733,6.276762899233251,0.0,0.0,0.0,0.0,0.0,-1.1108642675512677e-7,0.0,0.0
5073,1,69.0,1.0350159114147972,7.565999117923459,0.0,0.0,0.032,0.015,0.0,-1.1191094294550143e-7,-8.181851331521981e-9,-3.835242811650928e-9
5075,1,34.5,1.027560427808884,9.988945164311533,0.0,0.0,-0.12,0.044500000000000005,0.0,-1.1420286038022808e-7,0.0,0.0
5078,1,34.5,0.9860373923324485,12.618381211637276,0.0,0.0,-0.315,0.0463,0.0,3.052088627159895e-8,0.0,0.0
5079,1,34.5,1.0285783990672606,10.176197537751499,0.0,0.0,-0.1,0.038,0.0,-1.1354802088309688e-7,0.0,0.0
5081,1,230.0,1.0296563954800133,-4.590478828053355,0.0,0.0,0.0,0.0,0.0,-1.4579066908630136e-9,0.0,0.0
5083,1,69.0,1.01281186133883,-7.340823055072465,0.0,0.0,1.7310000000000003,0.37799999999999995,0.0,-1.486973377024413e-9,-8.181818109222799e-9,-1.7866708522739553e-9
5124,1,34.5,1.0044821680989737,11.383893902388431,0.0,0.0,-0.132,0.0025700000000000002,0.0,9.613444998709732e-10,0.0,0.0
5126,1,34.5,0.9821281644220475,12.272754934808273,0.0,0.0,-0.327,0.0604,0.0,3.059833727964889e-8,0.0,0.0
5127,1,34.5,1.0076579598858726,13.014754678701456,0.0,0.0,-0.218,0.0168,0.0,1.0241046156460864e-9,0.0,0.0
5128,1,230.0,1.020504409132694,7.221539278208554,0.0,0.0,0.0,0.0,0.0,6.98470206909399e-10,0.0,0.0
5168,1,138.0,0.99983893853846,8.017814835206632,0.0,0.0,0.0,0.0,0.0,8.511417283061926e-10,0.0,0.0
5169,1,138.0,0.9809419216833366,8.43426157157032,0.0,0.0,0.0,0.0,0.0,8.122591097101605e-10,0.0,0.0
5170,1,34.5,1.0052365282541131,14.424186098264277,0.0,0.0,-0.792,0.0978,0.0,-1.7255696258597229e-9,0.0,0.0
5176,1,500.0,1.0984247845077844,-3.7351377655783513,0.0,0.0,1.892,-0.215,0.0,3.8469084495530333e-10,-9.090909088016336e-9,1.0330578509109474e-9
5200,1,500.0,1.0969255285548876,-4.332329294775041,0.0,0.0,15.36,-4.89,0.0,1.4274705080174738e-10,-9.09090624409644e-9,2.89417523005414e-9
5202,1,230.0,0.9881601550624499,-5.594781649502875,0.0,0.0,0.0,0.0,0.0,-9.70055769342559e-10,0.0,0.0
5211,1,230.0,0.9851052532498146,-13.812785410838167,0.0,0.0,0.0,0.0,0.0,1.8194994472692815e-10,0.0,0.0
5212,1,230.0,0.984998343004936,-13.881878280326989,0.0,0.0,0.9878,0.07346,0.0,3.0933821524592105e-10,-8.181805015514243e-9,-6.084585912529625e-10
5213,1,69.0,1.0075551668264593,-19.08183704697128,0.0,0.0,2.952,0.971,0.0,2.1522480414722767e-10,-8.181805049143451e-9,-2.6912373654194753e-9
5214,1,991.0,1.010170677439822,-19.30993580962728,0.0,0.0,0.0,0.0,0.0,2.168049715438632e-10,0.0,0.0
5215,1,13.8,1.0101706774114687,-19.30993580962728,0.0,0.0,0.0,0.0,0.0,2.136647963084194e-10,0.0,0.0
5216,1,230.0,0.9927951077939701,-6.522568585790147,0.0,0.0,1.536,0.07609,0.0,6.749753887228315e-9,-8.181795475225965e-9,-4.053078240299112e-10
5218,2,992.0,0.9851053123560961,-13.812787129710587,0.0,0.0,0.0,0.0,0.0,0.0,0.0,0.0
5219,2,992.0,0.9851053123560961,-13.812787129710587,0.0,0.0,0.0,0.0,0.0,0.0,0.0,0.0
5220,2,992.0,0.9927568300641737,-6.347832797818537,0.0,0.0,0.0,0.0,0.0,0.0,0.0,0.0
5222,1,230.0,0.9927568300641737,-6.347832797818537,0.0,0.0,5.082,-0.179,0.0,6.965145881584976e-9,-8.181795331944523e-9,2.8818208666235144e-10
5226,1,69.0,0.9736783093938204,-8.166578671167896,0.0,0.0,-0.23600000000000002,-0.001,0.0,7.5356372169634e-9,0.0,0.0
5231,1,13.8,0.9948525121350118,-5.860745886942927,0.0,0.0,0.0,0.0,0.0,-1.7114550924260865e-5,0.0,0.0
5232,2,990.0,1.040035503198685,-5.8695378124654285,0.0,0.19999697168227712,0.0,0.0,0.0,0.0,0.0,0.0
5235,1,138.0,0.9965090772050019,-5.486864402998454,0.0,0.0,0.0,0.0,0.0,-3.0291495573182634e-5,0.0,0.0
5236,1,991.0,0.9948510257868528,-5.860745886942927,0.0,0.0,0.0,0.0,0.0,-1.7114599788901243e-5,0.0,0.0
5237,1,991.0,1.0049936667021058,-5.8695378124654285,0.0,0.0,0.0,0.0,0.0,-1.6375282829660982e-5,0.0,0.0
5238,1,13.8,1.0169212511864898,-5.8695378124654285,0.0,0.0,0.0,0.0,0.0,-1.588270440833563e-5,0.0,0.0
5239,1,991.0,0.9812709338513282,-6.347832797818537,0.0,0.0,0.0,0.0,0.0,-1.3971983717621904e-6,0.0,0.0
5240,2,992.0,1.0055127968301132,0.29767448291188897,0.0,0.0,0.0,0.0,0.0,0.0,0.0,0.0
5241,1,230.0,1.0304843042913383,1.5241793437765818,0.0,0.0,0.0,0.0,0.0,-3.725175568062134e-8,0.0,0.0
5242,2,992.0,1.0055127968301132,0.29767448291188897,0.0,0.0,0.0,0.0,0.0,0.0,0.0,0.0
5243,1,69.0,1.014000033683749,-1.443736124274009,0.0,0.0,1.6480000000000001,0.040999999999999995,0.0,-3.643697940513253e-8,-8.18182819049581e-9,-2.0355276444801467e-10
5245,1,230.0,1.0327350665052892,1.753819075303518,0.0,0.0,0.0,0.0,0.0,-2.930079694086884e-8,0.0,0.0
5246,1,69.0,1.0052623780880878,0.3019880735358647,0.0,0.0,1.014,0.08,0.0,-2.9418208693623375e-8,-8.181825515219614e-9,-6.455089163881352e-10
5247,1,991.0,0.9747389334697043,-8.26408852526765,0.0,0.0,0.0,0.0,0.0,7.56608719040064e-9,0.0,0.0
5248,1,13.8,0.9747389329749941,-8.26408852526765,0.0,0.0,0.0,0.0,0.0,7.564130614195013e-9,0.0,0.0
5249,1,138.0,0.9500030834400339,-7.970687770795518,0.0,0.0,0.0,0.0,0.0,-9.297626200508908e-5,0.0,0.0
5252,1,138.0,1.0461359997261324,0.09143693960049339,0.0,0.0,0.0,0.0,0.0,-1.703845582229448e-6,0.0,0.0
5253,1,69.0,1.040462417632121,-1.4832818137007748,0.0,0.0,0.0,0.0,0.0,-1.725199008269445e-6,0.0,0.0
5254,1,230.0,1.0095264979886043,3.0163707550980696,0.0,0.0,0.0,0.0,0.0,-1.492448788762745e-7,0.0,0.0
5255,1,138.0,1.0499998949769926,0.6587451322782931,0.0,0.0,0.0,0.0,0.0,-2.6846282476948495e-7,0.0,0.0
5256,1,13.8,1.0404630785889226,-1.4832818137007748,0.0,0.0,0.0,0.0,0.0,-1.7235617755558502e-6,0.0,0.0
5257,1,69.0,1.005476637718999,0.2981430763698185,0.0,0.0,0.0,0.0,0.0,-2.9370030084317482e-8,0.0,0.0
5258,1,69.0,1.0055127968301132,0.29767448291188897,0.0,0.0,0.0,0.0,0.0,-2.9340447928002326e-8,0.0,0.0
5259,1,13.8,0.9655153645247582,-8.2594154825193,0.0,0.0,0.0,0.0,0.0,7.56231799499737e-9,0.0,0.0
5262,1,230.0,1.015214439444315,6.400606833592213,0.0,0.0,0.0,0.0,0.0,-1.1166235427771645e-7,0.0,0.0
5263,1,69.0,1.0226061160163504,6.147967832027236,0.0,0.0,0.34900000000000003,0.01,0.0,-1.1220970625365535e-7,-8.181854376736827e-9,-2.344370881586483e-10
5264,1,991.0,0.9655153650604954,-8.2594154825193,0.0,0.0,0.0,0.0,0.0,7.564562893136436e-9,0.0,0.0
5265,1,13.8,1.0250439074775306,6.395402522260048,0.0,0.0,0.0,0.0,0.0,-1.1168272610940294e-7,0.0,0.0
5267,1,13.8,1.025043907477514,6.395402522260048,0.0,0.0,0.0,0.0,0.0,-1.1168272610940249e-7,0.0,0.0
5268,1,991.0,1.0250438598428027,6.395402522260048,0.0,0.0,0.0,0.0,0.0,-1.116738289642923e-7,0.0,0.0
5269,1,991.0,1.0250438598427858,6.395402522260048,0.0,0.0,0.0,0.0,0.0,-1.1167382896429232e-7,0.0,0.0
5271,1,230.0,0.9865427929965479,-13.901121889814634,0.0,0.0,1.8969999999999998,0.1844,0.0,3.7143177638243767e-10,-8.181805035508358e-9,-7.953214805206861e-10
5272,1,991.0,1.0049453897113325,-13.397563641145268,0.0,0.0,0.0,0.0,0.0,3.901727057465407e-10,0.0,0.0
5273,1,69.0,1.015487137852823,-16.227210967423755,0.0,0.0,1.963,0.7390000000000001,0.0,4.759501224952757e-10,-8.18180503780232e-9,-3.08015991998773e-9
5274,1,13.8,1.0049453896344331,-13.3975636410469,0.0,0.0,0.0,0.0,0.0,3.8530064478124514e-10,0.0,0.0
5276,1,991.0,1.0148091802051118,-1.6682087254668965,0.0,0.0,0.0,0.0,0.0,-3.635885322600724e-8,0.0,0.0
5277,1,13.8,1.0148091829801429,-1.6682087254668965,0.0,0.0,0.0,0.0,0.0,-3.636057653905365e-8,0.0,0.0
5285,1,13.8,1.0324257661753435,-2.5301521368130566,0.0,0.0,0.0,0.0,0.0,-2.006449754374386e-9,0.0,0.0
5286,1,991.0,1.0324257657799523,-2.5301521359503387,0.0,0.0,0.0,0.0,0.0,-2.0025656616498466e-9,0.0,0.0
5287,1,991.0,1.0073851173667798,-3.7868594721255384,0.0,0.0,0.0,0.0,0.0,4.758775631675725e-10,0.0,0.0
5288,1,13.8,1.0073851172481982,-3.7868594721255384,0.0,0.0,0.0,0.0,0.0,4.700829111547574e-10,0.0,0.0
5299,1,34.5,1.0304833902242652,16.727939680635497,0.0,0.0,-0.516,0.032,0.0,7.201278263689457e-10,0.0,0.0
5315,1,34.5,1.0223149819662551,10.65313131633865,0.0,0.0,-0.324,0.1,0.0,-3.9812152169949825e-9,0.0,0.0
5318,1,500.0,1.0988262690617998,-3.643688664422166,0.0,0.0,1.47,-0.36700000000000005,0.0,5.418064298379464e-10,-9.090909087486107e-9,2.269635125923402e-9
5320,1,34.5,1.019525150492185,0.7998124425913068,0.0,0.0,-0.084,0.0101,0.0,1.542983419664577e-9,0.0,0.0
5337,1,230.0,1.0281893384358556,9.41637674835177,0.0,0.0,0.0,0.0,0.0,-1.7158878369659065e-9,0.0,0.0
5350,1,500.0,1.0879866894828465,7.936981543250595,0.0,0.0,0.0,0.0,0.0,4.703053329660815e-11,0.0,0.0
5351,1,230.0,1.0052398514470664,10.442591986894314,0.0,0.0,0.0,0.0,0.0,2.7111473186601785e-9,0.0,0.0
5352,1,230.0,1.0267878483794715,12.453688767843621,0.0,0.0,0.0,0.0,0.0,2.3574622886623264e-10,0.0,0.0
5353,1,12.0,1.001594748924629,13.848836072171812,0.0,0.0,0.0,0.0,0.0,2.7274555007179115e-10,0.0,0.0
5370,1,500.0,1.0963976785868734,-2.511897712620854,0.0,0.0,0.0,0.0,0.0,-8.366539799752414e-10,0.0,0.0
5371,1,230.0,0.9888393101573909,-2.055907954590136,0.0,0.0,0.0,0.0,0.0,-8.261960976858458e-10,0.0,0.0
5373,1,34.5,0.9966384374215753,1.9791341227632713,0.0,0.0,0.0,0.0,0.0,-8.812753093999867e-10,0.0,0.0
5374,1,34.5,1.0040651093116564,3.4333789361004707,0.0,0.0,-0.192,0.0163,0.0,-8.667279227387428e-10,0.0,0.0
5376,1,991.0,1.0428454845494022,9.806834584876867,0.0,0.0,0.0,0.0,0.0,5.809816513586908e-9,0.0,0.0
5377,1,13.8,1.0428454796976243,9.806834584876867,0.0,0.0,0.0,0.0,0.0,8.978972795869719e-9,0.0,0.0
5378,1,230.0,1.0499276264048598,-7.987901666641217,0.0,0.0,2.092,-0.14,0.0,3.2822607761450815e-8,-8.18181030325273e-9,5.475398864509477e-10
5380,1,500.0,1.0809297220978062,-1.424418308731962,0.0,0.0,12.24,-3.0,0.0,-3.2631128074151543e-9,-9.09090785711636e-9,2.228163690469696e-9
5381,1,230.0,1.0322260871950288,-2.8369900300443915,0.0,0.0,0.0,0.0,0.0,-2.016902505249258e-9,0.0,0.0
5383,1,69.0,1.0047015181248355,-4.351497294204869,0.0,0.0,1.8689999999999998,0.953,0.0,-2.0816917434383842e-9,-8.181818037806313e-9,-4.171895446778715e-9
5386,1,991.0,1.0091593642717267,-7.505138743723761,0.0,0.0,0.0,0.0,0.0,-1.580638314388948e-9,0.0,0.0
5387,1,991.0,1.0100888839708635,-7.510199267084696,0.0,0.0,0.0,0.0,0.0,-1.5683417097923195e-9,0.0,0.0
5388,1,13.8,1.0100888844138731,-7.5101992680727685,0.0,0.0,0.0,0.0,0.0,-1.5751865232068802e-9,0.0,0.0
5394,1,138.0,1.0178536857646843,12.675286770460932,0.0,0.0,0.0,0.0,0.0,3.768464903709738e-9,0.0,0.0
5407,1,13.8,1.033908640874442,9.692125289542085,0.0,0.0,0.0,0.0,0.0,2.4380826651855326e-9,0.0,0.0
5408,1,500.0,1.0807523764349447,-1.3876980768354368,0.0,0.0,0.0,0.0,0.0,-3.2745812690521355e-9,0.0,0.0
5409,1,13.8,0.975046833149858,-2.1126971882569405,0.0,0.0,0.0,0.0,0.0,-3.9050831520944016e-9,0.0,0.0
5410,1,991.0,1.0150611961859837,-0.31587626850667266,0.0,0.0,0.0,0.0,0.0,-2.2450648795238984e-8,0.0,0.0
5411,1,230.0,1.0277284455279636,-0.31587626850667266,0.0,0.0,-0.233,0.01135,0.0,-3.35291977044454e-9,0.0,0.0
5412,1,13.8,1.000641704810286,-2.1126971882569405,0.0,0.0,0.0,0.0,0.0,-3.5884755291688334e-9,0.0,0.0
5413,1,69.0,1.0117724289574759,-2.0277701941590687,0.0,0.0,0.8619999999999999,0.35700000000000004,0.0,-3.459663581959576e-9,-8.181813278005575e-9,-3.388523596575396e-9
5414,1,13.8,1.0056709195040023,-2.111669758558853,0.0,0.0,0.0,0.0,0.0,-3.501205338197835e-9,0.0,0.0
5415,1,13.8,0.9926598605838001,-2.111669758558853,0.0,0.0,0.0,0.0,0.0,-3.589738615492348e-9,0.0,0.0
5416,1,13.8,1.0028572956100106,-4.230760672461565,0.0,0.0,0.10300000000000001,0.057999999999999996,0.0,-3.347564811125011e-9,-9.089677219661109e-10,-5.118459016896546e-10
5417,1,13.8,1.0158439887870732,-4.095043292108175,0.0,0.0,0.0,0.0,0.0,-3.3410022037688952e-9,0.0,0.0
5418,1,991.0,1.0114793043547552,-2.1126971882569405,0.0,0.0,0.0,0.0,0.0,-3.456507266216223e-9,0.0,0.0
5419,1,991.0,1.0111405204601827,-2.111669758558853,0.0,0.0,0.0,0.0,0.0,-3.462049805255485e-9,0.0,0.0
5421,1,230.0,1.0391290419126722,4.795301876682995,0.0,0.0,0.0,0.0,0.0,-4.642208278799206e-9,0.0,0.0
5422,1,13.8,1.0258971189720174,1.6087668345797543,0.0,0.0,0.142,0.028999999999999998,0.0,-4.228756598923728e-9,-9.090855862542472e-10,-1.8565832395333217e-10
5423,1,69.0,1.017337629623156,2.8036340498675156,0.0,0.0,0.784,0.217,0.0,-4.7025587417560235e-9,-8.18181792896229e-9,-2.2646103196234912e-9
5424,1,13.8,1.006470082146377,0.9746964394049926,0.0,0.0,0.0,0.0,0.0,-4.385247805976892e-9,0.0,0.0
5425,1,991.0,1.0474696524777438,9.741602133402559,0.0,0.0,0.0,0.0,0.0,2.8751733346069905e-9,0.0,0.0
5426,1,13.8,1.0012640752201922,0.9454055002255505,0.0,0.0,0.022000000000000002,0.006999999999999999,0.0,-4.385607724307692e-9,-9.090875339345987e-10,-2.8925512443373587e-10
5427,1,13.8,1.047469651732153,9.74160213471452,0.0,0.0,0.0,0.0,0.0,2.8712629465608605e-9,0.0,0.0
5428,1,500.0,1.0780288486785807,0.9885388015691708,0.0,0.0,0.0,0.0,0.0,-2.968568591256387e-9,0.0,0.0
5429,1,991.0,1.033908641184936,9.692125289542085,0.0,0.0,0.0,0.0,0.0,2.4403709385565508e-9,0.0,0.0
5431,1,230.0,1.0303180519149908,8.19644850270053,0.0,0.0,0.0,0.0,0.0,-2.223181262670544e-9,0.0,0.0
5433,1,69.0,1.0116219313846881,6.147789949541525,0.0,0.0,1.006,0.196,0.0,-2.222468093607344e-9,-8.181819451433815e-9,-1.5940721794046002e-9
5434,1,230.0,1.0310990198555443,9.40643610405249,0.0,0.0,0.0,0.0,0.0,-2.0441499523613668e-9,0.0,0.0
5438,1,34.5,1.0237942728310905,11.690315388312277,0.0,0.0,0.0,0.0,0.0,-1.891759005348831e-9,0.0,0.0
5439,1,34.5,1.022785697349486,12.641292852390595,0.0,0.0,-0.42200000000000004,0.14300000000000002,0.0,-1.8449413958413272e-9,0.0,0.0
5441,1,230.0,1.0253698509746176,10.142614557927233,0.0,0.0,0.0,0.0,0.0,-2.995323770408875e-10,0.0,0.0
5442,1,991.0,1.0094313114074296,9.002049104501541,0.0,0.0,0.0,0.0,0.0,-2.5732693503951517e-10,0.0,0.0
5443,2,69.0,1.0093315339597957,9.085112115955095,1.162,0.13041397205047564,2.314,0.037000000000000005,0.0,-2.608934785431362e-10,-8.181821711302883e-9,-1.308242883829761e-10
5444,1,991.0,1.010043677081206,9.001581692973264,0.0,0.0,0.0,0.0,0.0,-2.558256145143135e-10,0.0,0.0
5445,1,13.8,0.9963021933950946,9.001581692973264,0.0,0.0,0.0,0.0,0.0,-2.99863763699512e-10,0.0,0.0
5448,1,34.5,0.9852287263934756,0.6131602960645114,0.0,0.0,0.0,0.0,0.0,-3.875093279150818e-10,0.0,0.0
5449,1,230.0,0.9962072958922614,-1.223237153139789,0.0,0.0,0.0,0.0,0.0,-2.2458964034731196e-10,0.0,0.0
5451,1,500.0,1.0742223963327477,-2.2069623975333132,0.0,0.0,0.0,0.0,0.0,-1.5191338671711132e-9,0.0,0.0
5452,1,230.0,1.0384307864266296,-3.6296191057077025,0.0,0.0,0.0,0.0,0.0,-1.5610644115048032e-9,0.0,0.0
5453,1,69.0,1.010763534618747,-7.155390192425866,0.0,0.0,2.4400000000000004,0.759,0.0,-1.56967689288066e-9,-8.181818095416443e-9,-2.545081940336508e-9
5456,1,13.8,1.0091593766224873,-7.505138743723761,0.0,0.0,0.0,0.0,0.0,-1.5196139680266177e-9,0.0,0.0
5457,1,13.8,1.0091594329086786,-7.505138743723761,0.0,0.0,0.0,0.0,0.0,-1.231004956738121e-9,0.0,0.0
5458,1,230.0,1.0385626871928983,-3.627187777128426,0.0,0.0,0.0,0.0,0.0,-1.5587722357287599e-9,0.0,0.0
5459,1,34.5,1.0499652721204797,15.626393745250844,0.0,0.0,-0.455,0.0,0.0,2.927105537711096e-7,0.0,0.0
5460,2,992.0,1.010763534618747,-7.155390192425866,0.0,0.0,0.0,0.0,0.0,0.0,0.0,0.0
5461,1,230.0,1.0051208800761406,10.351582447307802,0.0,0.0,0.0,0.0,0.0,2.410435060042199e-9,0.0,0.0
5462,1,230.0,1.0058754869854976,10.345488572098244,0.0,0.0,0.0,0.0,0.0,2.3867641696254736e-9,0.0,0.0
5463,1,69.0,1.035009403107516,9.706698171135004,0.0,0.0,0.5199999999999999,-0.013999999999999999,0.0,2.4394518544484823e-9,-8.181828535424083e-9,2.2027999903064838e-10
5466,2,992.0,1.0058754869854976,10.345488572098244,0.0,0.0,0.0,0.0,0.0,0.0,0.0,0.0
5468,1,138.0,1.006669388773272,10.955169131434419,0.0,0.0,0.201,-0.005,0.0,2.9510508243480447e-9,-8.181828534789473e-9,2.035280730047132e-10
5470,1,230.0,1.01259287979831,12.586129071362587,0.0,0.0,0.0,0.0,0.0,2.2101206018193643e-9,0.0,0.0
5471,1,230.0,1.0378364778565063,-3.7832571485982216,0.0,0.0,0.0,0.0,0.0,-1.5418464108505033e-9,0.0,0.0
5472,1,34.5,1.0144075027817017,2.692070963516466,0.0,0.0,-0.085,0.0167,0.0,2.5573714136104214e-9,0.0,0.0
5473,1,69.0,1.0215105992448423,-5.835132328492445,0.0,0.0,1.1989999999999998,0.36200000000000004,0.0,-1.518536365879624e-9,-8.181818104790347e-9,-2.4702403285522155e-9
5474,1,138.0,0.9809435985081446,10.590730522625075,0.0,0.0,0.0,0.0,0.0,5.332377917372881e-9,0.0,0.0
5475,1,69.0,1.0305698699418586,9.859676300896858,0.0,0.0,0.098,0.006,0.0,5.904340957199741e-9,-8.181828692021623e-9,-5.009282872666299e-10
5476,1,13.8,0.9616234731951291,9.786677680427422,0.0,0.0,0.0,0.0,0.0,3.825806380225257e-9,0.0,0.0
5477,1,34.5,0.9725649947331968,14.542174298591242,0.0,0.0,0.0,0.0,0.0,1.5649324030991453e-9,0.0,0.0
5478,1,991.0,0.9616236862977315,9.786677680427422,0.0,0.0,0.0,0.0,0.0,6.057946734243065e-9,0.0,0.0
5480,1,500.0,1.096680142449063,-3.393428676345916,0.0,0.0,0.0,0.0,0.0,1.7526558870898914e-11,0.0,0.0
5481,1,230.0,0.9914163011517418,-4.053931200606278,0.0,0.0,0.0,0.0,0.0,3.11808845671338e-12,0.0,0.0
5482,1,991.0,1.0198847848290362,-9.114803813986425,0.0,0.0,0.0,0.0,0.0,3.262102284425984e-11,0.0,0.0
5483,1,69.0,1.0224944280577284,-7.376390541420736,0.0,0.0,1.885,0.20800000000000002,0.0,1.791424567988084e-11,-8.181818173697774e-9,-9.028213157183752e-10
5484,1,991.0,1.0271478716765199,-9.121742581745467,0.0,0.0,0.0,0.0,0.0,3.131906380519533e-11,0.0,0.0
5485,1,13.8,1.047274767253045,-9.117722366263008,0.0,0.0,0.0,0.0,0.0,2.1244910331565687e-11,0.0,0.0
5486,1,230.0,1.0215141026718488,-3.318601629490264,0.0,0.0,0.0,0.0,0.0,5.751544156751651e-10,0.0,0.0
5487,1,13.8,1.0358318788368261,-9.118857876408233,0.0,0.0,0.0,0.0,0.0,2.2494285140414054e-11,0.0,0.0
5488,1,230.0,0.9897426802813717,-3.5384932407540433,0.0,0.0,0.0,0.0,0.0,2.0041685056033802e-11,0.0,0.0
5489,1,69.0,1.0173496523816612,-1.4684053312475052,0.0,0.0,0.0,0.0,0.0,1.3584885002182895e-9,0.0,0.0
5518,1,230.0,1.02545941749324,12.36881068714439,0.0,0.0,0.0,0.0,0.0,1.180960231794007e-7,0.0,0.0
5519,1,34.5,1.0463236091025976,14.823557941702244,0.0,0.0,0.0,0.0,0.0,2.497712621816008e-7,0.0,0.0
5527,1,230.0,0.9923771576255348,-3.1735229462204892,0.0,0.0,0.0,0.0,0.0,-3.8809808109658706e-11,0.0,0.0
5536,1,34.5,0.9822821519303112,0.5779932148378699,0.0,0.0,0.0,0.0,0.0,-8.046580670076088e-10,0.0,0.0
5537,1,230.0,0.9961655062315624,-1.7111711461911028,0.0,0.0,0.0,0.0,0.0,-3.2793243813560426e-10,0.0,0.0
5611,1,230.0,1.0081640326483872,-6.723033597782308,0.0,0.0,0.08585000000000001,-0.0361,0.0,-3.4330088509198277e-9,-8.18181347400437e-9,3.4404597135883257e-9
5612,1,34.5,1.0180560164915715,3.6921928774843265,0.0,0.0,-0.29100000000000004,0.0353,0.0,-5.212628597485853e-10,0.0,0.0
5613,1,69.0,1.006921983906976,-7.796320707879477,0.0,0.0,0.305,-0.011000000000000001,0.0,-3.396692412190497e-9,-8.181813335143799e-9,2.950817924150223e-10
5621,1,230.0,1.0189515140096947,6.003444382160327,0.0,0.0,0.0,0.0,0.0,-4.301336102532166e-9,0.0,0.0
5623,1,69.0,1.0089781882774342,7.1083004086906385,0.0,0.0,0.785,0.55,0.0,-4.437004853536564e-9,-8.18181342842351e-9,-5.732480746029211e-9
5624,1,991.0,1.0074919758123089,7.198307996366753,0.0,0.0,0.0,0.0,0.0,-4.447235971893306e-9,0.0,0.0
5625,1,13.8,1.0074919770304294,7.198307996366753,0.0,0.0,0.0,0.0,0.0,-4.453807298108524e-9,0.0,0.0
5626,1,991.0,1.0081406504358965,7.158870260441493,0.0,0.0,0.0,0.0,0.0,-4.442768061123937e-9,0.0,0.0
5627,1,13.8,1.0081406507702946,7.158870260441493,0.0,0.0,0.0,0.0,0.0,-4.444566993423589e-9,0.0,0.0
5631,1,230.0,1.0350795290321424,3.9907497387304693,0.0,0.0,0.0,0.0,0.0,-5.482543494302556e-9,0.0,0.0
5633,1,69.0,1.018039780226781,2.1643494481772794,0.0,0.0,0.0,0.0,0.0,-5.546321623636891e-9,0.0,0.0
5641,1,230.0,1.026717884675167,-4.744655945111577,0.0,0.0,0.0,0.0,0.0,-1.5649706816720854e-9,0.0,0.0
5643,1,69.0,1.0246366610524928,-7.945880569335169,0.0,0.0,2.275,0.6709999999999999,0.0,-1.5985298352858424e-9,-8.181818093116631e-9,-2.413186787024729e-9
5651,1,230.0,1.0292858048347413,-4.053787646112424,0.0,0.0,0.0,0.0,0.0,-1.2704650447567965e-9,0.0,0.0
5653,1,69.0,1.0109978577535301,-7.038109204679171,0.0,0.0,1.455,0.314,0.0,-1.275863136363052e-9,-8.181818118479796e-9,-1.7656982056375643e-9
5656,1,230.0,0.9888694423461449,-2.0559131686652767,0.0,0.0,0.0,0.0,0.0,-8.310274451133905e-10,0.0,0.0
5658,2,992.0,0.9888694423461449,-2.0559131686652767,0.0,0.0,0.0,0.0,0.0,0.0,0.0,0.0
5659,2,992.0,0.9888694423461449,-2.0559131686652767,0.0,0.0,0.0,0.0,0.0,0.0,0.0,0.0
5660,2,992.0,1.0292858048347413,-4.053787646112424,0.0,0.0,0.0,0.0,0.0,0.0,0.0,0.0
5690,1,230.0,0.9894013198106347,-2.060935192762682,0.0,0.0,1.66,0.546,0.0,-8.234101613498435e-10,-8.181818160195942e-9,-2.691128141847581e-9
5702,1,34.5,1.0092326532566314,2.7107052081458485,0.0,0.0,-0.486,0.00658,0.0,-1.932102078641405e-9,0.0,0.0
5745,1,34.5,1.030349979201717,14.679797518009593,0.0,0.0,0.0,0.0,0.0,5.833308966455862e-10,0.0,0.0
5746,3,992.0,1.029778912855481,0.0,1.570206433764072,1.810109227558915,0.0,0.0,0.0,0.0,0.0,0.0
5799,2,992.0,1.0148856041828496,3.3490660877622522,0.142,0.04550246952667982,0.0,0.0,0.0,0.0,0.0,0.0
...
